"""

 CRECK Modeling Group (Politecnico di Milano)
 http://creckmodeling.chem.polimi.it/

 C1C3HT_NOX_1412 kinetic mechanism
 Version 1412, December 2014
 Detailed mechanism of the pyrolysis, partial oxidation and combustion of hydrocarbon fuels up to 3 C atoms with NOx.

 High Temperature Kinetic scheme: 115 species 2141 reactions

 References

E. Ranzi, A. Frassoldati, R. Grana, A. Cuoci, T. Faravelli, A.P. Kelley, C.K. Law, Hierarchical and comparative kinetic modeling of laminar flame speeds of hydrocarbon and oxygenated fuels,
Progress in Energy and Combustion Science, 38 (4), pp. 468-501 (2012), DOI: 10.1016/j.pecs.2012.03.004

T. Faravelli, A.Frassoldati and E. Ranzi, Kinetic modeling of the interactions between NO and hydrocarbons in the oxidation of hydrocarbons at low temperatures,
Combustion and Flame, 132(1-2), pp. 188 - 207 (2003), doi:10.1016/S0010-2180(02)00437-6

A. Frassoldati, T. Faravelli and E. Ranzi, Kinetic modeling of the interactions between NO and hydrocarbons at high temperature,
Combustion and Flame 135, pp. 97-112 (2003), doi:10.1016/S0010-2180(03)00152-4

A. Cuoci, A. Frassoldati, T. Faravelli, E. Ranzi, Formation of soot and nitrogen oxides in unsteady counterflow diffusion flames,
Combustion and Flame 156 (10), pp. 2010-2022 (2009), doi:10.1016/j.combustflame.2009.06.023


"""

units(length='cm', time='s', quantity='mol', act_energy='cal/mol')

ideal_gas(name='gas',
          elements="C H Cl O N Ar He",
          species="""HE         AR         N2         NO         N2O
                     O2         NO2        HNO        HNNO       HNO2
                     HONO       HONO2      H2         N2H2       H2O
                     H2O2       NH3        N2H4       CO         CO2
                     HCN        HOCN       HCNO       HNCO       CH2O
                     CH3NO      CH3NO2     CH3ONO     CH3ONO2    CH4
                     CH3OH      CH3OOH     C2H2       CH2CO      C2H2O2
                     CH3CN      C2H4       CH3CHO     C2H4O      C2H4O2
                     C2-OQOOH   C2H6       C2H5OH     C2H5OOH    C3H2
                     AC3H4      PC3H4      C2H3CHO    C3H6       CH3COCH3
                     C3H6O      C2H5CHO    C3H8       C4H2       C4H4
                     C4H6       IC4H8      NC4H8      CYC5H4O    CYC5H6
                     C6H6       MCPTD      C10H8      N          O
                     NO3        H          NH         NNH        OH
                     HO2        NH2        H2NO       N2H3       C
                     CN         NCO        CH         HCO        CH2
                     CH2S       H2CN       CH3        CH3O       CH2OH
                     CH3OO      C2H        HCCO       CH2CN      C2H3
                     CH3CO      CH2CHO     C2H5       C2H4OH     CH3CHOH
                     C2H5OO     C2-QOOH    C2-OOQOOH  C3H3       CHCHCH3
                     CH2CCH3    CH2CHCH2   RALD3B     RALD3G     CH3COCH2
                     NC3H7      IC3H7      C4H3       C4H5       IC4H7
                     CH2C3H5    SC4H7      CYC5H5     C5H5O      C6H5""",
          reactions='all',
          transport='Mix',
          initial_state=state(temperature=300.0, pressure=OneAtm))

#-------------------------------------------------------------------------------
# Species data
#-------------------------------------------------------------------------------

species(name='HE',
        atoms='He:1',
        thermo=(NASA([300.00, 1490.00],
                     [ 2.50000000E+00, -4.07455160E-15,  5.98527266E-18,
                      -3.43074982E-21,  6.74775716E-25, -7.45375000E+02,
                       9.28723974E-01]),
                NASA([1490.00, 3500.00],
                     [ 2.50000000E+00,  7.40336223E-15, -5.56967416E-18,
                       1.73924876E-21, -1.92673709E-25, -7.45375000E+02,
                       9.28723974E-01])),
        transport=gas_transport(geom='atom',
                                diam=2.576,
                                well_depth=10.2))

species(name='AR',
        atoms='Ar:1',
        thermo=(NASA([300.00, 1490.00],
                     [ 2.50000000E+00, -4.07455160E-15,  5.98527266E-18,
                      -3.43074982E-21,  6.74775716E-25, -7.45375000E+02,
                       4.36600000E+00]),
                NASA([1490.00, 3500.00],
                     [ 2.50000000E+00,  7.40336223E-15, -5.56967416E-18,
                       1.73924876E-21, -1.92673709E-25, -7.45375000E+02,
                       4.36600000E+00])),
        transport=gas_transport(geom='atom',
                                diam=3.33,
                                well_depth=136.5))

species(name='N2',
        atoms='N:2',
        thermo=(NASA([300.00, 1050.00],
                     [ 3.85321336E+00, -2.44053349E-03,  5.35160392E-06,
                      -3.75608397E-09,  9.22684330E-13, -1.07969550E+03,
                       1.60217419E+00]),
                NASA([1050.00, 3500.00],
                     [ 2.71287897E+00,  1.90359754E-03, -8.54297556E-07,
                       1.84170938E-10, -1.54715988E-14, -8.40225273E+02,
                       7.15926558E+00])),
        transport=gas_transport(geom='linear',
                                diam=3.621,
                                well_depth=97.53,
                                polar=1.76,
                                rot_relax=4.0))

species(name='NO',
        atoms='N:1 O:1',
        thermo=(NASA([300.00, 970.00],
                     [ 3.91290193E+00, -2.61206371E-03,  6.43242163E-06,
                      -4.98744709E-09,  1.33965920E-12,  9.76280404E+03,
                       3.57691592E+00]),
                NASA([970.00, 3500.00],
                     [ 2.69775018E+00,  2.39887133E-03, -1.31644700E-06,
                       3.38235813E-10, -3.29394890E-14,  9.99854348E+03,
                       9.40230813E+00])),
        transport=gas_transport(geom='linear',
                                diam=3.621,
                                well_depth=97.5,
                                polar=1.76,
                                rot_relax=4.0))

species(name='N2O',
        atoms='N:2 O:1',
        thermo=(NASA([300.00, 1650.00],
                     [ 2.68521969E+00,  8.34178508E-03, -6.55498992E-06,
                       2.50666137E-09, -3.74128239E-13,  8.74902635E+03,
                       8.92812480E+00]),
                NASA([1650.00, 3500.00],
                     [ 5.52129143E+00,  1.46645965E-03, -3.04694075E-07,
                      -1.87106858E-11,  8.50389041E-15,  7.81312268E+03,
                      -6.17451657E+00])),
        transport=gas_transport(geom='linear',
                                diam=3.828,
                                well_depth=232.4,
                                rot_relax=1.0))

species(name='O2',
        atoms='O:2',
        thermo=(NASA([300.00, 760.00],
                     [ 3.46035080E+00, -8.85011121E-04,  5.15281056E-06,
                      -5.40712413E-09,  1.87809542E-12, -1.02942573E+03,
                       5.02236126E+00]),
                NASA([760.00, 3500.00],
                     [ 2.81750648E+00,  2.49838007E-03, -1.52493521E-06,
                       4.50547608E-10, -4.87702792E-14, -9.31713392E+02,
                       7.94729337E+00])),
        transport=gas_transport(geom='linear',
                                diam=3.458,
                                well_depth=107.4,
                                polar=1.6,
                                rot_relax=3.8))

species(name='NO2',
        atoms='N:1 O:2',
        thermo=(NASA([300.00, 1800.00],
                     [ 2.61409592E+00,  7.51596848E-03, -5.51797745E-06,
                       1.91957608E-09, -2.58623476E-13,  2.90498637E+03,
                       1.19442483E+01]),
                NASA([1800.00, 3500.00],
                     [ 5.25673685E+00,  1.64343307E-03, -6.24197948E-07,
                       1.07065150E-10, -6.88584753E-15,  1.95363563E+03,
                      -2.35827568E+00])),
        transport=gas_transport(geom='nonlinear',
                                diam=3.5,
                                well_depth=200.0,
                                rot_relax=1.0))

species(name='HNO',
        atoms='H:1 N:1 O:1',
        thermo=(NASA([300.00, 900.00],
                     [ 3.40204752E+00,  2.06632330E-03,  2.39107502E-06,
                      -3.06691580E-09,  9.69122277E-13,  1.08553846E+04,
                       6.45229501E+00]),
                NASA([900.00, 3500.00],
                     [ 2.72673666E+00,  5.06770488E-03, -2.61122761E-06,
                       6.38493559E-10, -6.01581004E-14,  1.09769405E+04,
                       9.63912842E+00])),
        transport=gas_transport(geom='nonlinear',
                                diam=3.492,
                                well_depth=116.7,
                                rot_relax=1.0))

species(name='HNNO',
        atoms='H:1 N:2 O:1',
        thermo=(NASA([300.00, 1360.00],
                     [ 2.29344827E+00,  1.32315890E-02, -1.10140386E-05,
                       4.71484900E-09, -8.11688108E-13,  2.65975767E+04,
                       1.39015974E+01]),
                NASA([1360.00, 3500.00],
                     [ 4.88500308E+00,  5.60936901E-03, -2.60717829E-06,
                       5.93839036E-10, -5.41495114E-14,  2.58926738E+04,
                       6.01980007E-01])),
        transport=gas_transport(geom='nonlinear',
                                diam=3.828,
                                well_depth=232.4,
                                rot_relax=1.0))

species(name='HNO2',
        atoms='H:1 N:1 O:2',
        thermo=(NASA([300.00, 1800.00],
                     [ 1.68890715E+00,  1.13282593E-02, -6.90490427E-06,
                       2.05457920E-09, -2.42664314E-13, -8.07573815E+03,
                       1.58397474E+01]),
                NASA([1800.00, 3500.00],
                     [ 3.30359406E+00,  7.74006618E-03, -3.91474332E-06,
                       9.47112178E-10, -8.88494507E-14, -8.65702544E+03,
                       7.10072496E+00])),
        transport=gas_transport(geom='nonlinear',
                                diam=3.5,
                                well_depth=200.0,
                                rot_relax=1.0))

species(name='HONO',
        atoms='H:1 N:1 O:2',
        thermo=(NASA([300.00, 1420.00],
                     [ 2.37883184E+00,  1.33766411E-02, -1.16174666E-05,
                       5.06705227E-09, -8.69814280E-13, -1.04421916E+04,
                       1.29185606E+01]),
                NASA([1420.00, 3500.00],
                     [ 5.88742112E+00,  3.49329101E-03, -1.17730803E-06,
                       1.65569378E-10, -6.87715202E-15, -1.14386309E+04,
                      -5.23866548E+00])),
        transport=gas_transport(geom='nonlinear',
                                diam=3.5,
                                well_depth=200.0,
                                rot_relax=1.0))

species(name='HONO2',
        atoms='H:1 N:1 O:3',
        thermo=(NASA([300.00, 1310.00],
                     [ 8.85706040E-01,  2.31736309E-02, -2.06245022E-05,
                       9.08576291E-09, -1.60133609E-12, -1.63135971E+04,
                       2.06729940E+01]),
                NASA([1310.00, 3500.00],
                     [ 5.20949091E+00,  9.97123440E-03, -5.50725421E-06,
                       1.39250696E-09, -1.33157469E-13, -1.74464288E+04,
                      -1.35430787E+00])),
        transport=gas_transport(geom='nonlinear',
                                diam=3.5,
                                well_depth=300.0,
                                rot_relax=1.0))

species(name='H2',
        atoms='H:2',
        thermo=(NASA([300.00, 750.00],
                     [ 3.08866003E+00,  2.53968841E-03, -5.72992027E-06,
                       5.71701843E-09, -1.98865970E-12, -9.92148124E+02,
                      -2.43823459E+00]),
                NASA([750.00, 3500.00],
                     [ 3.73110902E+00, -8.86706214E-04,  1.12286897E-06,
                      -3.74349782E-10,  4.17963674E-14, -1.08851547E+03,
                      -5.35285855E+00])),
        transport=gas_transport(geom='linear',
                                diam=2.92,
                                well_depth=38.0,
                                polar=0.79,
                                rot_relax=280.0))

species(name='N2H2',
        atoms='H:2 N:2',
        thermo=(NASA([300.00, 930.00],
                     [ 2.44745784E+00,  6.87698140E-03, -1.02186571E-06,
                      -1.40855675E-09,  5.67069064E-13,  2.45922533E+04,
                       1.03375547E+01]),
                NASA([930.00, 3500.00],
                     [ 1.94872574E+00,  9.02206572E-03, -4.48167913E-06,
                       1.07159624E-09, -9.96387287E-14,  2.46850174E+04,
                       1.27074554E+01])),
        transport=gas_transport(geom='nonlinear',
                                diam=3.798,
                                well_depth=71.4,
                                rot_relax=1.0))

species(name='H2O',
        atoms='H:2 O:1',
        thermo=(NASA([300.00, 1590.00],
                     [ 4.03530937E+00, -6.87559833E-04,  2.86629214E-06,
                      -1.50552360E-09,  2.55006790E-13, -3.02783278E+04,
                      -1.99201641E-01]),
                NASA([1590.00, 3500.00],
                     [ 2.30940463E+00,  3.65433887E-03, -1.22983871E-06,
                       2.11931683E-10, -1.50333493E-14, -2.97294901E+04,
                       8.92765177E+00])),
        transport=gas_transport(geom='nonlinear',
                                diam=2.605,
                                well_depth=572.4,
                                dipole=1.844,
                                rot_relax=4.0))

species(name='H2O2',
        atoms='H:2 O:2',
        thermo=(NASA([300.00, 1180.00],
                     [ 2.91896355E+00,  9.92397296E-03, -8.56537418E-06,
                       4.23738723E-09, -8.61930485E-13, -1.76139998E+04,
                       8.76340177E+00]),
                NASA([1180.00, 3500.00],
                     [ 4.56163072E+00,  4.35560969E-03, -1.48694629E-06,
                       2.38275424E-10, -1.46610352E-14, -1.80016693E+04,
                       5.66597119E-01])),
        transport=gas_transport(geom='nonlinear',
                                diam=3.458,
                                well_depth=107.4,
                                rot_relax=3.8))

species(name='NH3',
        atoms='H:3 N:1',
        thermo=(NASA([300.00, 1210.00],
                     [ 3.21689186E+00,  3.19715670E-03,  1.81217371E-06,
                      -1.87188573E-09,  4.41133513E-13, -6.63347835E+03,
                       3.82536772E+00]),
                NASA([1210.00, 3500.00],
                     [ 2.21117984E+00,  6.52182453E-03, -2.30931532E-06,
                       3.98907128E-10, -2.80385645E-14, -6.39009604E+03,
                       8.86905603E+00])),
        transport=gas_transport(geom='nonlinear',
                                diam=2.92,
                                well_depth=481.0,
                                dipole=1.47,
                                rot_relax=10.0))

species(name='N2H4',
        atoms='H:4 N:2',
        thermo=(NASA([300.00, 1160.00],
                     [ 3.60425651E-01,  2.54315974E-02, -2.39564748E-05,
                       1.23188419E-08, -2.56059034E-12,  1.04206687E+04,
                       2.00258283E+01]),
                NASA([1160.00, 3500.00],
                     [ 4.91914378E+00,  9.71187969E-03, -3.62925367E-06,
                       6.36530934E-10, -4.28508947E-14,  9.36304606E+03,
                      -2.64395648E+00])),
        transport=gas_transport(geom='nonlinear',
                                diam=4.23,
                                well_depth=205.0,
                                polar=4.26,
                                rot_relax=1.5))

species(name='CO',
        atoms='C:1 O:1',
        thermo=(NASA([300.00, 1000.00],
                     [ 3.81890943E+00, -2.40697343E-03,  5.75226966E-06,
                      -4.28629830E-09,  1.11070419E-12, -1.43689533E+04,
                       2.49992060E+00]),
                NASA([1000.00, 3500.00],
                     [ 2.68595014E+00,  2.12486373E-03, -1.04548608E-06,
                       2.45538864E-10, -2.22550981E-14, -1.41423615E+04,
                       7.96579426E+00])),
        transport=gas_transport(geom='linear',
                                diam=3.65,
                                well_depth=98.1,
                                polar=1.95,
                                rot_relax=1.8))

species(name='CO2',
        atoms='C:1 O:2',
        thermo=(NASA([300.00, 1620.00],
                     [ 2.44892797E+00,  8.54596135E-03, -6.60570102E-06,
                       2.52769046E-09, -3.80099332E-13, -4.83922906E+04,
                       9.47557732E+00]),
                NASA([1620.00, 3500.00],
                     [ 5.07830985E+00,  2.05366041E-03, -5.94311265E-07,
                       5.38675131E-11,  1.66346855E-15, -4.92442103E+04,
                      -4.47815290E+00])),
        transport=gas_transport(geom='linear',
                                diam=3.763,
                                well_depth=244.0,
                                polar=2.65,
                                rot_relax=2.1))

species(name='HCN',
        atoms='C:1 H:1 N:1',
        thermo=(NASA([300.00, 850.00],
                     [ 2.53139665E+00,  8.28865751E-03, -9.42673531E-06,
                       6.49076646E-09, -1.84372594E-12,  1.52043042E+04,
                       7.73641055E+00]),
                NASA([850.00, 3500.00],
                     [ 3.48152100E+00,  3.81748410E-03, -1.53642929E-06,
                       3.02291150E-10, -2.35861473E-14,  1.50427831E+04,
                       3.30702298E+00])),
        transport=gas_transport(geom='linear',
                                diam=3.63,
                                well_depth=569.0,
                                rot_relax=1.0))

species(name='HOCN',
        atoms='C:1 H:1 N:1 O:1',
        thermo=(NASA([300.00, 1760.00],
                     [ 3.05788784E+00,  8.96112848E-03, -6.42222341E-06,
                       2.37993882E-09, -3.48450172E-13, -2.41328352E+03,
                       9.97681509E+00]),
                NASA([1760.00, 3500.00],
                     [ 6.92286755E+00,  1.77083687E-04,  1.06417841E-06,
                      -4.55819441E-10,  5.43563991E-14, -3.77375638E+03,
                      -1.08544042E+01])),
        transport=gas_transport(geom='nonlinear',
                                diam=3.828,
                                well_depth=232.4,
                                rot_relax=1.0))

species(name='HCNO',
        atoms='C:1 H:1 N:1 O:1',
        thermo=(NASA([300.00, 1350.00],
                     [ 2.20954024E+00,  1.61806064E-02, -1.59487412E-05,
                       7.73695136E-09, -1.44331449E-12,  1.80837616E+04,
                       1.02968215E+01]),
                NASA([1350.00, 3500.00],
                     [ 7.12423974E+00,  1.61853378E-03,  2.31339437E-07,
                      -2.53211924E-10,  3.63453797E-14,  1.67567928E+04,
                      -1.48886865E+01])),
        transport=gas_transport(geom='nonlinear',
                                diam=3.828,
                                well_depth=232.4,
                                rot_relax=1.0))

species(name='HNCO',
        atoms='C:1 H:1 N:1 O:1',
        thermo=(NASA([300.00, 1660.00],
                     [ 2.99127956E+00,  1.08585026E-02, -8.49633812E-06,
                       3.35431054E-09, -5.16583618E-13, -1.38433864E+04,
                       8.77460657E+00]),
                NASA([1660.00, 3500.00],
                     [ 7.29502452E+00,  4.88032844E-04,  8.74568316E-07,
                      -4.09105701E-10,  5.01959355E-14, -1.52722297E+04,
                      -1.41696888E+01])),
        transport=gas_transport(geom='nonlinear',
                                diam=3.828,
                                well_depth=232.4,
                                rot_relax=1.0))

species(name='CH2O',
        atoms='C:1 H:2 O:1',
        thermo=(NASA([300.00, 930.00],
                     [ 3.13463322E+00,  1.80037482E-03,  8.80336316E-06,
                      -8.92465077E-09,  2.63639286E-12, -1.50171301E+04,
                       7.57920580E+00]),
                NASA([930.00, 3500.00],
                     [ 1.06639253E+00,  1.06960337E-02, -5.54447373E-06,
                       1.36053696E-09, -1.28442554E-13, -1.46324373E+04,
                       1.74071779E+01])),
        transport=gas_transport(geom='nonlinear',
                                diam=3.59,
                                well_depth=498.0,
                                rot_relax=2.0))

species(name='CH3NO',
        atoms='C:1 H:3 N:1 O:1',
        thermo=(NASA([300.00, 860.00],
                     [ 2.23451684E+00,  1.42398818E-02, -4.66701756E-06,
                      -9.50669597E-10,  6.98715974E-13,  8.27938279E+03,
                       1.51773992E+01]),
                NASA([860.00, 3500.00],
                     [ 1.73828229E+00,  1.65479495E-02, -8.69271695E-06,
                       2.17002760E-09, -2.08463444E-13,  8.36473513E+03,
                       1.74966005E+01])),
        transport=gas_transport(geom='linear',
                                diam=3.621,
                                well_depth=97.5,
                                polar=1.76,
                                rot_relax=4.0))

species(name='CH3NO2',
        atoms='C:1 H:3 N:1 O:2',
        thermo=(NASA([300.00, 1620.00],
                     [-2.05952276E-01,  2.74261453E-02, -1.90559023E-05,
                       6.76278185E-09, -9.68944802E-13, -9.47533640E+03,
                       2.99224212E+01]),
                NASA([1620.00, 3500.00],
                     [ 5.94771391E+00,  1.22319078E-02, -4.98716389E-06,
                       9.73177561E-10, -7.54873508E-14, -1.14691242E+04,
                      -2.73415041E+00])),
        transport=gas_transport(geom='nonlinear',
                                diam=4.5,
                                well_depth=200.0,
                                rot_relax=1.0))

species(name='CH3ONO',
        atoms='C:1 H:3 N:1 O:2',
        thermo=(NASA([300.00, 1800.00],
                     [ 1.99249583E+00,  2.35492060E-02, -1.55589419E-05,
                       5.13700333E-09, -6.74367363E-13, -9.18533663E+03,
                       1.59354094E+01]),
                NASA([1800.00, 3500.00],
                     [ 8.58034518E+00,  8.90954082E-03, -3.35922089E-06,
                       6.18588139E-10, -4.68096982E-14, -1.15569624E+04,
                      -1.97194056E+01])),
        transport=gas_transport(geom='nonlinear',
                                diam=4.5,
                                well_depth=200.0,
                                rot_relax=1.0))

species(name='CH3ONO2',
        atoms='C:1 H:3 N:1 O:3',
        thermo=(NASA([300.00, 1800.00],
                     [ 1.35155390E+00,  3.12122600E-02, -2.17921125E-05,
                       7.33918744E-09, -9.67578931E-13, -1.47211877E+04,
                       1.99560088E+01]),
                NASA([1800.00, 3500.00],
                     [ 1.07457798E+01,  1.03362024E-02, -4.39539782E-06,
                       8.95959797E-10, -7.26862027E-14, -1.81031090E+04,
                      -3.08875015E+01])),
        transport=gas_transport(geom='nonlinear',
                                diam=4.5,
                                well_depth=300.0,
                                rot_relax=1.0))

species(name='CH4',
        atoms='C:1 H:4',
        thermo=(NASA([300.00, 1070.00],
                     [ 2.85765313E+00,  2.53571100E-03,  9.67916346E-06,
                      -8.69880870E-09,  2.25599770E-12, -1.00357904E+04,
                       4.98969392E+00]),
                NASA([1070.00, 3500.00],
                     [-2.82321416E-01,  1.42739336E-02, -6.77628877E-06,
                       1.55380951E-09, -1.39473841E-13, -9.36383584E+03,
                       2.03507024E+01])),
        transport=gas_transport(geom='nonlinear',
                                diam=3.746,
                                well_depth=141.4,
                                polar=2.6,
                                rot_relax=13.0))

species(name='CH3OH',
        atoms='C:1 H:4 O:1',
        thermo=(NASA([300.00, 700.00],
                     [ 2.88895785E+00,  4.85657077E-03,  1.59348814E-05,
                      -2.08247943E-08,  7.94986176E-12, -2.53716460E+04,
                       1.03674509E+01]),
                NASA([700.00, 3500.00],
                     [ 9.34193000E-01,  1.60266556E-02, -8.00101466E-06,
                       1.97129714E-09, -1.91599484E-13, -2.50979789E+04,
                       1.91008457E+01])),
        transport=gas_transport(geom='nonlinear',
                                diam=3.626,
                                well_depth=481.8,
                                rot_relax=1.0))

species(name='CH3OOH',
        atoms='C:1 H:4 O:2',
        thermo=(NASA([300.00, 1800.00],
                     [ 5.93430876E+00,  1.04356674E-02, -3.01974623E-06,
                       1.41830001E-10,  3.83264515E-14, -1.81342471E+04,
                      -2.80822136E+00]),
                NASA([1800.00, 3500.00],
                     [ 5.50146514E+00,  1.13975421E-02, -3.82130848E-06,
                       4.38704910E-10, -2.90617476E-15, -1.79784234E+04,
                      -4.65581411E-01])),
        transport=gas_transport(geom='nonlinear',
                                diam=3.626,
                                well_depth=481.8,
                                rot_relax=1.0))

species(name='C2H2',
        atoms='C:2 H:2',
        thermo=(NASA([300.00, 970.00],
                     [ 1.83812159E+00,  1.64533925E-02, -1.93408005E-05,
                       1.24068047E-08, -3.14627391E-12,  2.61425043E+04,
                       9.54239252E+00]),
                NASA([970.00, 3500.00],
                     [ 4.61193612E+00,  5.01498204E-03, -1.65253694E-06,
                       2.49922532E-10, -1.30568636E-14,  2.56043843E+04,
                      -3.75517096E+00])),
        transport=gas_transport(geom='linear',
                                diam=4.1,
                                well_depth=209.0,
                                rot_relax=2.5))

species(name='CH2CO',
        atoms='C:2 H:2 O:1',
        thermo=(NASA([300.00, 1410.00],
                     [ 2.49197065E+00,  1.58706066E-02, -1.26271528E-05,
                       5.33991909E-09, -9.11597189E-13, -7.58486732E+03,
                       1.06694385E+01]),
                NASA([1410.00, 3500.00],
                     [ 6.03578795E+00,  5.81722422E-03, -1.93206512E-06,
                       2.83140054E-10, -1.50051612E-14, -8.58422380E+03,
                      -7.64505060E+00])),
        transport=gas_transport(geom='nonlinear',
                                diam=3.97,
                                well_depth=436.0,
                                rot_relax=2.0))

species(name='C2H2O2',
        atoms='C:2 H:2 O:2',
        thermo=(NASA([300.00, 1700.00],
                     [ 1.89947966E+00,  2.35363962E-02, -1.81616014E-05,
                       6.72307419E-09, -9.65107677E-13, -2.69305506E+04,
                       1.58338747E+01]),
                NASA([1700.00, 3500.00],
                     [ 9.83116579E+00,  4.87360532E-03, -1.69443300E-06,
                       2.65361078E-10, -1.54439841E-14, -2.96273239E+04,
                      -2.66407027E+01])),
        transport=gas_transport(geom='nonlinear',
                                diam=4.41,
                                well_depth=470.6,
                                rot_relax=1.5))

species(name='CH3CN',
        atoms='C:2 H:3 N:1',
        thermo=(NASA([300.00, 700.00],
                     [ 2.36621609E+00,  1.44996440E-02, -4.38445795E-06,
                      -1.82302645E-09,  1.20585756E-12,  8.57068531E+03,
                       1.15857868E+01]),
                NASA([700.00, 3500.00],
                     [ 2.02660925E+00,  1.64402545E-02, -8.54290907E-06,
                       2.13740318E-09, -2.08581596E-13,  8.61823027E+03,
                       1.31030643E+01])),
        transport=gas_transport(geom='linear',
                                diam=4.63,
                                well_depth=500.0,
                                rot_relax=1.0))

species(name='C2H4',
        atoms='C:2 H:4',
        thermo=(NASA([300.00, 1800.00],
                     [ 2.66161697E-01,  1.94272328E-02, -1.14541158E-05,
                       3.49691054E-09, -4.39228267E-13,  5.45399123E+03,
                       1.95264329E+01]),
                NASA([1800.00, 3500.00],
                     [ 4.49333672E+00,  1.00335105E-02, -3.62601388E-06,
                       5.97613541E-10, -3.65481279E-14,  3.93220822E+03,
                      -3.35192020E+00])),
        transport=gas_transport(geom='nonlinear',
                                diam=3.971,